[TITLE]


[JUNCTIONS]
;ID              	Elev        	Demand      	Pattern         
 300212X         	99.932388   	0.000000    	                	;
 300212Y         	99.932388   	0.000000    	                	;
 500199          	100.780000  	0.005674    	NRW             	;
 500200          	101.360000  	0.000000    	                	;
 500201          	99.927078   	0.016484    	Commercial      	;
 500202          	99.929390   	0.018059    	NRW             	;
 500203          	100.110000  	0.010956    	NRW             	;
 500204          	99.912537   	0.020675    	NRW             	;
 500205          	100.640000  	0.031732    	Commercial      	;
 500207          	100.400000  	0.000000    	                	;
 500209          	100.750000  	0.000000    	                	;
 500210          	99.932388   	0.000000    	                	;
 500211          	99.946877   	0.000032    	Commercial      	;
 500212          	99.896294   	0.009463    	NRW             	;
 500213          	99.780000   	0.004450    	NRW             	;
 500214          	99.909477   	0.008329    	NRW             	;
 500215          	99.909477   	0.000000    	                	;
 500216          	99.914093   	0.003618    	NRW             	;
 500217          	100.262000  	0.023070    	NRW             	;
 500218          	99.970497   	0.000000    	                	;
 500219          	100.420000  	0.000000    	                	;
 500220          	99.986633   	0.000000    	                	;
 500222          	100.420000  	0.000000    	                	;
 500223          	100.490000  	0.006787    	NRW             	;
 500224          	99.929817   	0.010315    	NRW             	;
 500225          	99.983429   	0.000000    	                	;
 500226          	99.976837   	0.018171    	NRW             	;
 500227          	100.370000  	0.000000    	                	;
 500228          	99.965530   	0.012927    	NRW             	;
 500229          	100.320000  	0.014776    	NRW             	;
 500230          	99.958961   	0.012056    	NRW             	;
 500231          	99.943420   	0.014658    	NRW             	;
 500232          	100.640000  	0.003287    	NRW             	;
 500233          	99.935898   	0.004787    	Commercial      	;
 500234          	100.390000  	0.019550    	NRW             	;
 500235          	99.978668   	0.010203    	NRW             	;
 500236          	100.210000  	0.006076    	NRW             	;
 500237          	99.962303   	0.080930    	Commercial      	;
 500238          	100.120000  	0.009284    	NRW             	;
 500239          	100.720000  	0.007359    	NRW             	;
 500240          	100.400000  	0.000000    	                	;
 500241          	100.210000  	0.000000    	                	;
 500242          	99.978668   	0.000000    	                	;
 500243          	99.962280   	0.010894    	NRW             	;
 500244          	99.939194   	0.000000    	                	;
 500245          	99.760000   	0.007332    	NRW             	;
 500246          	99.944748   	0.000000    	                	;
 500247          	99.943192   	0.006726    	NRW             	;
 500248          	99.932503   	0.000000    	                	;
 500249          	100.780000  	0.000000    	                	;
 500250          	99.903938   	0.009945    	NRW             	;
 500252          	99.988129   	0.004248    	NRW             	;
 500253          	99.985451   	0.000000    	                	;
 500254          	99.987587   	0.004264    	NRW             	;
 500255          	99.983490   	0.007043    	NRW             	;
 500256          	100.530000  	0.011102    	NRW             	;
 500257          	99.985573   	0.001950    	NRW             	;
 500258          	99.906372   	0.010733    	NRW             	;
 500259          	99.910187   	0.000412    	Commercial      	;
 500262          	100.024803  	0.002644    	NRW             	;
 500263          	99.952881   	0.010190    	NRW             	;
 500264          	99.911324   	0.003835    	NRW             	;
 500265          	99.944748   	0.000000    	                	;
 500267          	99.943192   	0.000809    	NRW             	;
 500268          	99.973984   	0.004625    	NRW             	;
 500269          	99.915649   	0.010626    	NRW             	;
 500271          	99.961700   	0.007193    	NRW             	;
 500272          	99.982628   	0.012238    	NRW             	;
 500273          	99.920929   	0.018965    	NRW             	;
 506165          	99.957932   	0.007663    	NRW             	;
 507003          	99.944748   	0.000000    	                	;
 507004          	100.170000  	0.001427    	Commercial      	;
 507005          	99.944748   	0.000000    	                	;
 507006          	99.944748   	0.000000    	                	;
 507007          	99.936920   	0.007893    	Commercial      	;
 507008          	99.947472   	1.231024    	Commercial      	;
 507009          	99.971390   	0.080740    	Commercial      	;
 507010          	100.170000  	0.022261    	NRW             	;
 507011          	100.170000  	0.000000    	                	;
 507012          	99.970000   	10.180000   	LU_Abbatoir_2043	;
 507233          	100.750000  	0.000000    	                	;
 507234          	99.964996   	0.000000    	                	;
 507235          	99.968674   	0.002629    	NRW             	;
 507236          	99.971642   	0.004981    	NRW             	;
 507237          	99.971642   	0.000000    	                	;
 507239          	99.943192   	0.006086    	Commercial      	;
 507240          	99.891052   	0.000000    	                	;
 507241          	99.890633   	0.022000    	NRW             	;
 507242          	99.890633   	0.001422    	NRW             	;
 507243          	99.917198   	0.004328    	NRW             	;
 507244          	100.570000  	0.000000    	                	;
 507245          	100.570000  	0.000000    	                	;
 507246          	99.906677   	0.024054    	NRW             	;
 507247          	99.902977   	0.005997    	NRW             	;
 507248          	100.023598  	0.007145    	NRW             	;
 507249          	100.024803  	0.014039    	NRW             	;
 507250          	99.985291   	0.017473    	NRW             	;
 507251          	99.987244   	0.003159    	NRW             	;
 507446          	99.949181   	0.000000    	                	;
 507447          	99.952660   	0.000000    	                	;
 507448          	99.952660   	0.008971    	NRW             	;
 507449          	99.949181   	0.000000    	                	;
 507450          	99.952660   	0.000000    	                	;
 507452          	99.949181   	0.033510    	NRW             	;
 507453          	99.949181   	0.000000    	                	;
 507454          	99.941177   	0.000000    	                	;
 507455          	99.944717   	0.000000    	                	;
 507741          	99.964493   	0.013638    	NRW             	;
 507742          	99.900871   	0.027164    	NRW             	;
 507743          	99.914093   	0.004908    	NRW             	;
 507744          	99.995209   	0.479300    	Commercial      	;
 507745          	99.983429   	0.000000    	                	;
 507746          	99.983429   	0.000000    	                	;
 507747          	99.962303   	0.017340    	Commercial      	;
 507748          	99.962303   	0.000000    	                	;
 507753          	99.914902   	0.012121    	NRW             	;
 507754          	99.932388   	0.036772    	Commercial      	;
 700102X         	100.320000  	0.005483    	NRW             	;
 700102Y         	100.320000  	0.000000    	                	;
 700103X         	100.320000  	0.000000    	                	;
 700103Y         	100.320000  	0.002631    	Commercial      	;
 700104X         	100.750000  	0.007253    	NRW             	;
 700104Y         	100.750000  	0.000000    	                	;
 700105X         	100.640000  	0.000000    	                	;
 700105Y         	100.640000  	0.001807    	Commercial      	;
 700106X         	99.935898   	0.015563    	NRW             	;
 700106Y         	99.935898   	0.000000    	                	;
 700107X         	99.970497   	0.012645    	NRW             	;
 700107Y         	99.970497   	0.000000    	                	;
 700108X         	100.390000  	0.000000    	                	;
 700108Y         	100.390000  	0.000000    	                	;
 700109X         	100.490000  	0.000000    	                	;
 700109Y         	100.490000  	0.000000    	                	;
 700110X         	100.490000  	0.025346    	NRW             	;
 700110Y         	100.490000  	0.000000    	                	;
 700111X         	99.958961   	0.000000    	                	;
 700111Y         	99.958961   	0.015563    	NRW             	;
 700112X         	100.210000  	0.009256    	NRW             	;
 700112Y         	100.210000  	0.000000    	                	;
 700113X         	100.400000  	0.000000    	                	;
 700113Y         	100.400000  	0.004902    	NRW             	;
 700114X         	100.400000  	0.000000    	                	;
 700114Y         	100.400000  	0.000000    	                	;
 700115X         	100.120000  	0.000000    	                	;
 700115Y         	100.120000  	0.000000    	                	;
 700116X         	100.720000  	0.010288    	NRW             	;
 700116Y         	100.720000  	0.000000    	                	;
 700117X         	100.400000  	0.009043    	NRW             	;
 700117Y         	100.400000  	0.000000    	                	;
 700118X         	100.400000  	0.000000    	                	;
 700118Y         	100.400000  	0.000000    	                	;
 700119X         	100.400000  	0.000000    	                	;
 700119Y         	100.400000  	0.000000    	                	;
 700120X         	100.400000  	0.000000    	                	;
 700120Y         	100.400000  	0.000000    	                	;
 700121X         	100.370000  	0.000000    	                	;
 700121Y         	100.370000  	0.008396    	NRW             	;
 700122X         	100.370000  	0.000000    	                	;
 700122Y         	100.370000  	0.000000    	                	;
 700123X         	100.420000  	0.000000    	                	;
 700123Y         	100.420000  	0.009043    	NRW             	;
 700124X         	100.210000  	0.000000    	                	;
 700124Y         	100.210000  	0.000000    	                	;
 700125X         	99.983429   	0.008394    	NRW             	;
 700125Y         	99.983429   	0.000000    	                	;
 700126X         	99.983429   	0.000000    	                	;
 700126Y         	99.983429   	0.000000    	                	;
 700127X         	99.970047   	0.006289    	NRW             	;
 700127Y         	99.970047   	0.001735    	NRW             	;
 700128X         	99.978668   	0.000000    	                	;
 700128Y         	99.978668   	0.010066    	NRW             	;
 700129X         	99.971642   	0.009207    	NRW             	;
 700129Y         	99.971642   	0.000000    	                	;
 700130X         	99.968674   	0.000000    	                	;
 700130Y         	99.968674   	0.000000    	                	;
 700131X         	99.971642   	0.004796    	NRW             	;
 700131Y         	99.971642   	0.000138    	NRW             	;
 700132X         	99.964996   	0.000000    	                	;
 700132Y         	99.964996   	0.002467    	NRW             	;
 700133X         	99.965530   	0.000000    	                	;
 700133Y         	99.965530   	0.000000    	                	;
 700134X         	99.965530   	0.000000    	                	;
 700134Y         	99.965530   	0.000000    	                	;
 700135X         	99.939194   	0.000000    	                	;
 700135Y         	99.939194   	0.000000    	                	;
 700136X         	99.939194   	0.000000    	                	;
 700136Y         	99.939194   	0.000000    	                	;
 700137X         	99.939194   	0.016222    	NRW             	;
 700137Y         	99.939194   	0.000000    	                	;
 700138X         	99.935020   	0.000000    	                	;
 700138Y         	99.935020   	0.013037    	NRW             	;
 700139X         	99.932907   	0.000000    	                	;
 700139Y         	99.932907   	0.009271    	NRW             	;
 700140X         	99.909477   	0.003162    	NRW             	;
 700140Y         	99.909477   	0.000000    	                	;
 700141X         	99.909477   	0.000000    	                	;
 700141Y         	99.909477   	0.029793    	NRW             	;
 700142X         	99.929817   	0.000000    	                	;
 700142Y         	99.929817   	0.007872    	NRW             	;
 700143X         	99.914093   	0.010733    	NRW             	;
 700143Y         	99.914093   	0.000000    	                	;
 700144X         	99.780000   	0.000000    	                	;
 700144Y         	99.780000   	0.007713    	NRW             	;
 700145X         	99.780000   	0.015429    	NRW             	;
 700145Y         	99.780000   	0.000000    	                	;
 700146X         	99.760000   	0.000000    	                	;
 700146Y         	99.760000   	0.015429    	NRW             	;
 700147X         	99.760000   	0.013037    	NRW             	;
 700147Y         	99.760000   	0.000000    	                	;
 700148X         	99.896294   	0.029793    	NRW             	;
 700148Y         	99.896294   	0.000000    	                	;
 700149X         	100.570000  	0.000000    	                	;
 700149Y         	100.570000  	0.000000    	                	;
 700150X         	100.110000  	0.000000    	                	;
 700150Y         	100.110000  	0.004328    	NRW             	;
 700151X         	99.929390   	0.000000    	                	;
 700151Y         	99.929390   	0.019384    	NRW             	;
 700152X         	101.360000  	0.016470    	NRW             	;
 700152Y         	101.360000  	0.000000    	                	;
 700153X         	100.780000  	0.016419    	NRW             	;
 700153Y         	100.780000  	0.000000    	                	;
 700154X         	100.750000  	0.000000    	                	;
 700154Y         	100.750000  	0.000000    	                	;
 700155X         	100.750000  	0.000000    	                	;
 700155Y         	100.750000  	0.012372    	NRW             	;
 700156X         	100.750000  	0.000000    	                	;
 700156Y         	100.750000  	0.006466    	NRW             	;
 700157X         	99.944748   	0.000000    	                	;
 700157Y         	99.944748   	0.000000    	                	;
 700158Y         	99.944748   	0.000000    	                	;
 700159X         	99.944748   	0.000722    	NRW             	;
 700159Y         	99.944748   	0.000000    	                	;
 700160X         	100.170000  	0.002378    	Commercial      	;
 700160Y         	100.170000  	0.000000    	                	;
 700162X         	99.943420   	0.004749    	NRW             	;
 700162Y         	99.943420   	0.000000    	                	;
 700166X         	99.936180   	0.005940    	NRW             	;
 700166Y         	99.936180   	0.000000    	                	;
 700167X         	99.932503   	0.000000    	                	;
 700167Y         	99.932503   	0.005669    	NRW             	;
 700168X         	99.936180   	0.007616    	NRW             	;
 700168Y         	99.936180   	0.000000    	                	;
 700169X         	99.932503   	0.012372    	NRW             	;
 700169Y         	99.932503   	0.000000    	                	;
 700170X         	100.640000  	0.000000    	                	;
 700170Y         	100.640000  	0.000000    	                	;
 700171X         	100.640000  	0.008020    	Commercial      	;
 700171Y         	100.640000  	0.000000    	                	;
 8055439X        	99.957932   	0.004667    	NRW             	;
 8055439Y        	99.957932   	0.000000    	                	;
 8058387X        	99.940437   	0.008527    	Commercial      	;
 8058387Y        	99.940437   	0.000000    	                	;
 8058389X        	100.170000  	0.000000    	                	;
 8058389Y        	100.170000  	0.000000    	                	;
 8058390X        	99.971390   	0.010873    	Commercial      	;
 8058390Y        	99.971390   	0.000000    	                	;
 8058391X        	100.170000  	0.000000    	                	;
 8058391Y        	100.170000  	0.017283    	NRW             	;
 8058401X        	99.973831   	0.000000    	                	;
 8058401Y        	99.973831   	0.000000    	                	;
 8058405X        	100.170000  	0.000000    	                	;
 8058405Y        	100.170000  	0.000000    	                	;
 8058985X        	99.944748   	0.000000    	                	;
 8058986X        	99.959183   	0.003614    	Commercial      	;
 8058986Y        	99.959183   	0.000000    	                	;
 8058987X        	99.962303   	0.000000    	                	;
 8058987Y        	99.962303   	0.000000    	                	;
 8058988X        	99.962303   	0.000000    	                	;
 8058988Y        	99.962303   	0.000000    	                	;
 8058990X        	99.946877   	0.000000    	                	;
 8058990Y        	99.946877   	0.000000    	                	;
 8058991X        	99.943100   	0.000000    	                	;
 8058991Y        	99.943100   	0.003867    	Commercial      	;
 8058992X        	99.932388   	0.000000    	                	;
 8058992Y        	99.932388   	0.007616    	NRW             	;
 8058994X        	100.640000  	0.000000    	                	;
 8058994Y        	100.640000  	0.000000    	                	;
 8059000X        	99.892990   	0.000000    	                	;
 8059000Y        	99.892990   	0.000000    	                	;
 8059001X        	99.891052   	0.020578    	NRW             	;
 8059001Y        	99.891052   	0.000000    	                	;
 8059020X        	101.360000  	0.000318    	NRW             	;
 8059020Y        	101.360000  	0.013023    	NRW             	;
 8059023X        	100.570000  	0.007209    	NRW             	;
 8059023Y        	100.570000  	0.000000    	                	;
 8059030X        	100.750000  	0.010848    	NRW             	;
 8059030Y        	100.750000  	0.000000    	                	;
 8059032X        	99.929390   	0.001456    	NRW             	;
 8059032Y        	99.929390   	0.004125    	NRW             	;
 8059033X        	100.780000  	0.004250    	NRW             	;
 8059033Y        	100.780000  	0.000000    	                	;
 8059034X        	100.780000  	0.000000    	                	;
 8059034Y        	100.780000  	0.013404    	NRW             	;
 8059047X        	99.978668   	0.000000    	                	;
 8059047Y        	99.978668   	0.002086    	NRW             	;
 8059048X        	99.978668   	0.004625    	NRW             	;
 8059048Y        	99.978668   	0.000000    	                	;
 8059055X        	100.210000  	0.000000    	                	;
 8059055Y        	100.210000  	0.008810    	NRW             	;
 8059056X        	99.970497   	0.000917    	NRW             	;
 8059056Y        	99.970497   	0.000000    	                	;
 8059085X        	100.420000  	0.024268    	NRW             	;
 8059085Y        	100.420000  	0.000000    	                	;
 8059086X        	100.420000  	0.000000    	                	;
 8059086Y        	100.420000  	0.009906    	NRW             	;
 8059087X        	100.120000  	0.000000    	                	;
 8059087Y        	100.120000  	0.001367    	NRW             	;
 8059089X        	100.370000  	0.000000    	                	;
 8059089Y        	100.370000  	0.011102    	NRW             	;
 8059091X        	99.969910   	0.000000    	                	;
 8059091Y        	99.969910   	0.002283    	NRW             	;
 8059774X        	99.968697   	0.000000    	                	;
 8059774Y        	99.968697   	0.000000    	                	;
 8059778X        	99.952660   	0.007889    	NRW             	;
 8059778Y        	99.952660   	0.000000    	                	;
 8059780X        	99.952660   	0.000000    	                	;
 8059780Y        	99.952660   	0.000000    	                	;
 8059789X        	99.944717   	0.000000    	                	;
 8059789Y        	99.944717   	0.000000    	                	;
 8059790X        	99.944717   	0.000000    	                	;
 8059790Y        	99.944717   	0.000438    	NRW             	;
 8082528         	99.960000   	0.004052    	NRW             	;
 8087725         	99.943710   	0.007988    	NRW             	;
 8087726         	99.938957   	0.010211    	NRW             	;
 8087727X        	99.938957   	0.000000    	                	;
 8087727Y        	99.938957   	0.000000    	                	;
 8087728X        	99.943710   	0.000000    	                	;
 8087728Y        	99.943710   	0.000000    	                	;
 8087732         	99.944992   	0.007841    	NRW             	;
 8087733         	99.948013   	0.009886    	NRW             	;
 8087734         	99.938957   	0.006757    	NRW             	;
 8087735         	99.943710   	0.005093    	NRW             	;
 8087736         	99.938957   	0.000000    	                	;
 8087737         	99.938957   	0.025712    	NRW             	;
 8093040         	99.948570   	4.222250    	LU_Nestle       	;
 8093041         	99.944748   	0.000000    	                	;
 8093042X        	99.944748   	0.000000    	                	;
 8093042Y        	99.944748   	0.000000    	                	;
 8093043X        	99.944748   	0.000000    	                	;
 8093043Y        	99.944748   	0.000000    	                	;
 8096701X        	99.909477   	0.000000    	                	;
 8096701Y        	99.909477   	0.011093    	NRW             	;
 8099156         	100.400000  	0.016389    	NRW             	;
 8101040         	99.941971   	0.000000    	                	;
 8101041X        	99.941971   	0.004099    	NRW             	;
 8101041Y        	99.941971   	0.000000    	                	;
 8102457         	99.956497   	0.013573    	NRW             	;
 8102458X        	99.956497   	0.000000    	                	;
 8102458Y        	99.956497   	0.005649    	NRW             	;
 8105873X        	99.944748   	0.000000    	                	;
 8105873Y        	99.944748   	0.000000    	                	;
 GHD_001         	99.940000   	0.000000    	                	;
 GHD_002         	99.940000   	0.000000    	                	;
 GHD_005         	99.940000   	0.000000    	                	;
 P_01            	99.803000   	0.000000    	                	;
 P_02            	100.470000  	0.000000    	                	;
 P_03            	99.960000   	0.000000    	                	;
 P_04            	100.372000  	0.000000    	                	;
 P_05            	101.404000  	0.000000    	                	;
 P_06            	99.383000   	0.000000    	                	;
 PF01            	100.222000  	0.000000    	                	;
 PF02            	100.858000  	0.000000    	                	;
 PF03            	100.357000  	0.000000    	                	;
 GHD_006         	99.944748   	0.000000    	                	;
 GHD_007         	99.940000   	0.010112    	Residential     	;
 GHD_008         	99.940000   	0.000000    	                	;
 GHD_009         	99.940000   	0.000000    	                	;
 GHD_010         	99.940000   	0.000000    	                	;
 GHD_012         	99.940000   	0.000000    	                	;
 GHD_011         	99.940000   	0.000000    	                	;
 GHD_013         	99.940000   	0.000000    	                	;
 GHD_014         	99.920000   	0.024536    	Residential     	;
 GHD_015         	99.940000   	0.117829    	Residential     	;
 GHD_016         	99.940000   	0.000000    	                	;
 GHD_017         	99.940000   	0.000000    	                	;
 GHD_018         	99.940000   	0.000000    	                	;
 GHD_019         	99.940000   	0.000000    	                	;
 GHD_020         	99.940000   	0.000000    	                	;
 GHD_021         	0.000000    	0.000000    	                	;
 GHD_022         	99.940000   	0.000000    	                	;
 GHD_023         	99.940000   	0.000000    	                	;
 GHD_024         	99.940000   	0.000000    	                	;

[RESERVOIRS]
;ID              	Head        	Pattern         
 GHD_003         	100.540000  	                	;

[TANKS]
;ID              	Elevation   	InitLevel   	MinLevel    	MaxLevel    	Diameter    	MinVol      	VolCurve        	Overflow
 GHD_004         	123.780000  	6.200000    	0.000000    	6.960000    	8.554220    	0.000000    	                	;

[PIPES]
;ID              	Node1           	Node2           	Length      	Diameter    	Roughness   	MinorLoss   	Status
 300212Y.P_04.1  	300212Y         	P_04            	22.525019   	200.000000  	0.080000    	0.000000    	Open  	;
 500199.500200.1 	500199          	500200          	45.686810   	96.000000   	1.000000    	0.000000    	Open  	;
 500200.8059020X.1	500200          	8059020X        	4.357021    	96.000000   	1.000000    	0.000000    	Open  	;
 500201.500250.1 	500201          	500250          	136.429016  	96.000000   	0.600000    	0.000000    	Open  	;
 500201.507245.1 	500201          	507245          	62.614094   	96.000000   	1.000000    	0.000000    	Open  	;
 500202.700151X.1	500202          	700151X         	2.517184    	96.000000   	1.000000    	0.000000    	Open  	;
 500202.700153X.1	500202          	700153X         	225.244568  	96.000000   	1.000000    	0.000000    	Open  	;
 500202.8059032X.1	500202          	8059032X        	19.968046   	96.000000   	1.000000    	0.000000    	Open  	;
 500203.500204.1 	500203          	500204          	85.971268   	96.000000   	1.000000    	0.000000    	Open  	;
 500203.700150X.1	500203          	700150X         	7.735258    	96.000000   	1.000000    	0.000000    	Open  	;
 500204.500205.1 	500204          	500205          	145.036957  	96.000000   	1.000000    	0.000000    	Open  	;
 500204.500264.1 	500204          	500264          	52.606304   	96.000000   	1.000000    	0.000000    	Open  	;
 500205.700170X.1	500205          	700170X         	24.994415   	200.000000  	0.080000    	0.000000    	Open  	;
 500207.507747.1 	500207          	507747          	30.108805   	225.000000  	0.060000    	0.000000    	Open  	;
 500207.700113X.1	500207          	700113X         	8.382546    	143.000000  	0.080000    	0.000000    	Open  	;
 500209.507233.1 	500209          	507233          	13.110904   	158.000000  	0.600000    	0.000000    	Open  	;
 500209.700154X.1	500209          	700154X         	3.489230    	96.000000   	1.000000    	0.000000    	Open  	;
 500209.700155X.1	500209          	700155X         	17.124674   	96.000000   	1.000000    	0.000000    	Open  	;
 500210.300212X.1	500210          	300212X         	13.671875   	200.000000  	0.080000    	0.000000    	Open  	;
 500210.8058992X.1	500210          	8058992X        	5.272728    	141.000000  	1.000000    	0.000000    	Open  	;
 500210.8058994X.1	500210          	8058994X        	181.647568  	200.000000  	0.080000    	0.000000    	Open  	;
 500211.8058990X.1	500211          	8058990X        	3.473230    	96.000000   	0.600000    	0.000000    	Open  	;
 500212.500213.1 	500212          	500213          	49.140083   	96.000000   	1.000000    	0.000000    	Open  	;
 500213.700144X.1	500213          	700144X         	3.769061    	96.000000   	1.000000    	0.000000    	Open  	;
 500214.500215.1 	500214          	500215          	5.163651    	96.000000   	1.000000    	0.000000    	Open  	;
 500214.700141X.1	500214          	700141X         	3.301901    	101.000000  	0.060000    	0.000000    	Open  	;
 500215.8096701X.1	500215          	8096701X        	6.487775    	101.000000  	0.080000    	0.000000    	Open  	;
 500216.507743.1 	500216          	507743          	23.950811   	96.000000   	1.000000    	0.000000    	Open  	;
 500216.P_03.1   	500216          	P_03            	23.552605   	96.000000   	1.000000    	0.000000    	Open  	;
 500217.500224.1 	500217          	500224          	119.417725  	96.000000   	1.000000    	0.000000    	Open  	;
 GHD_014.500269.1	GHD_014         	500269          	117.566536  	96.000000   	1.000000    	0.000000    	Open  	;
 500218.500219.1 	500218          	500219          	67.852959   	200.000000  	0.080000    	0.000000    	Open  	;
 500218.700124X.1	500218          	700124X         	82.356407   	200.000000  	0.080000    	0.000000    	Open  	;
 500219.500222.1 	500219          	500222          	13.533874   	96.000000   	1.000000    	0.000000    	Open  	;
 500219.700115X.1	500219          	700115X         	16.523542   	96.000000   	1.000000    	0.000000    	Open  	;
 500219.8059086X.1	500219          	8059086X        	2.967870    	96.000000   	1.000000    	0.000000    	Open  	;
 500220.500254.1 	500220          	500254          	58.503292   	96.000000   	0.600000    	0.000000    	Open  	;
 500220.700126X.1	500220          	700126X         	38.472229   	96.000000   	0.600000    	0.000000    	Open  	;
 500222.700123X.1	500222          	700123X         	9.848091    	101.000000  	0.080000    	0.000000    	Open  	;
 500224.700139X.1	500224          	700139X         	15.723158   	96.000000   	1.000000    	0.000000    	Open  	;
 500224.700142X.1	500224          	700142X         	6.359785    	96.000000   	1.000000    	0.000000    	Open  	;
 500225.500226.1 	500225          	500226          	133.897629  	96.000000   	0.600000    	0.000000    	Open  	;
 500226.500255.1 	500226          	500255          	96.620529   	96.000000   	1.000000    	0.000000    	Open  	;
 500227.700121X.1	500227          	700121X         	3.339843    	101.000000  	0.080000    	0.000000    	Open  	;
 500227.8059089X.1	500227          	8059089X        	3.936532    	96.000000   	1.000000    	0.000000    	Open  	;
 500228.700129X.1	500228          	700129X         	126.295021  	101.000000  	0.080000    	0.000000    	Open  	;
 500228.700133X.1	500228          	700133X         	2.478702    	101.000000  	0.080000    	0.000000    	Open  	;