[TITLE]
Scenario: Base 
Date: 6/5/2024 7:50:59 AM 

[PATTERNS]
AWWADiurnalFlow 0.5 0.3 0.2 0.2 0.2 0.3 0.4 0.5 
AWWADiurnalFlow 0.9 1.2 1.3 1.4 1.4 1.3 1.3 1.2 
AWWADiurnalFlow 1.2 1.3 1.4 1.5 1.7 1.8 1.6 0.9 
MeasuredDiurnalFlow 0.15 0.22 0.29 0.51 0.73 1.16 2.18 1.75 
MeasuredDiurnalFlow 1.45 1.31 1.24 1.24 1.31 1.16 1.16 1.31 
MeasuredDiurnalFlow 0.87 1.02 1.31 1.02 1.02 0.73 0.58 0.29 
Unity 1 1 1 1 1 1 1 1 
Unity 1 1 1 1 1 1 1 1 
Unity 1 1 1 1 1 1 1 1 
1/2ofMeasured 0.07 0.11 0.15 0.25 0.36 0.58 1.09 0.87 
1/2ofMeasured 0.73 0.65 0.62 0.62 0.65 0.58 0.58 0.65 
1/2ofMeasured 0.44 0.51 0.65 0.51 0.51 0.36 0.29 0.15 
MaxDayDiurnal 0.15 0.22 0.29 0.51 0.73 1.16 2.18 1.75 
MaxDayDiurnal 1.45 1.31 1.24 1.24 1.31 1.16 1.16 1.31 
MaxDayDiurnal 0.87 1.02 1.31 1.02 1.02 0.73 0.58 0.29 

[CURVES]
;HEADLOSS:
GPVHeadlossCurve-1 0 0
GPVHeadlossCurve-1 200 0.4
GPVHeadlossCurve-1 300 0.9
GPVHeadlossCurve-1 500 2.3
GPVHeadlossCurve-1 1000 11
GPVHeadlossCurve-1 2000 35
;PUMP:
PMP-1 0 190
PMP-1 25 189
PMP-1 50 185
PMP-1 75 183
PMP-1 100 180
PMP-1 125 150
PMP-1 150 125
PMP-1 175 105
PMP-1 190 100
;EFFICIENCY:
PMP-1E 25 0
PMP-1E 50 35
PMP-1E 75 50
PMP-1E 100 60
PMP-1E 125 65
PMP-1E 150 65
PMP-1E 175 60

[JUNCTIONS]
main_fittings-1 640.245 0 
main_fittings-100 899.594 0 
main_fittings-101 893.668 0 
main_fittings-102 889.997 0 
main_fittings-103 879.633 0 
main_fittings-104 860.407 0 
main_fittings-105 854.791 0 
main_fittings-106 846.533 0 
main_fittings-107 843.551 0 
main_fittings-108 811.083 0 
main_fittings-109 955.672 0 
main_fittings-110 910.392 0 
main_fittings-111 849.193 0 
main_fittings-112 726.447 0 
main_fittings-113 814.092 0 
main_fittings-114 815.723 0 
main_fittings-115 813.508 0 
main_fittings-118 773.719 0 
main_fittings-119 770.833 0 
main_fittings-120 763.93 0 
main_fittings-121 764.471 0 
main_fittings-122 764.921 0 
main_fittings-123 747.399 0 
main_fittings-124 747.401 0 
main_fittings-125 746.138 0 
main_fittings-126 746.335 0 
main_fittings-127 743.064 0 
main_fittings-128 743.052 0 
main_fittings-129 668.413 0 
main_fittings-130 756.096 0 
main_fittings-131 753.592 0 
main_fittings-132 746.297 0 
main_fittings-133 744.929 0 
main_fittings-134 743.157 0 
main_fittings-135 743.847 0 
main_fittings-136 749.883 0 
main_fittings-137 746.662 0 
main_fittings-138 740.62 0 
main_fittings-140 775.542 0 
main_fittings-141 775.094 0 
main_fittings-142 782.736 0 
main_fittings-143 786.753 0 
main_fittings-145 795.796 0 
main_fittings-146 796.335 0 
main_fittings-148 727.126 0 
main_fittings-149 733.738 0 
main_fittings-150 761.98 0 
main_fittings-151 745.348 0 
main_fittings-154 927.141 0 
main_fittings-155 917.121 0 
main_fittings-156 836.773 0 
main_fittings-157 827.227 0 
main_fittings-158 790.307 0 
main_fittings-159 848.004 0 
main_fittings-160 797.688 0 
main_fittings-161 797.09 0 
main_fittings-162 789.78 0 
main_fittings-163 789.769 0 
main_fittings-164 749.791 0 
main_fittings-165 749.799 0 
main_fittings-166 750.086 0 
main_fittings-167 736.582 0 
main_fittings-168 694.915 0 
main_fittings-169 694.33 0 
main_fittings-171 694.52 0 
main_fittings-172 694.47 0 
main_fittings-173 694.341 0 
main_fittings-174 694.16 0 
main_fittings-175 694.668 0 
main_fittings-176 694.616 0 
main_fittings-177 712.718 0 
main_fittings-178 712.769 0 
main_fittings-179 729.11 0 
main_fittings-180 749.654 0 
main_fittings-181 748.039 0 
main_fittings-182 747.407 0 
main_fittings-183 745.214 0 
main_fittings-184 745.056 0 
main_fittings-185 744.774 0 
main_fittings-186 745.456 0 
main_fittings-187 733.327 0 
main_fittings-188 694.501 0 
main_fittings-189 699.635 0 
main_fittings-190 705.281 0 
main_fittings-191 705.049 0 
main_fittings-192 708.448 0 
main_fittings-193 705.577 0 
main_fittings-194 704.526 0 
main_fittings-195 696.515 0 
main_fittings-196 721.959 0 
main_fittings-197 721.741 0 
main_fittings-198 721.889 0 
main_fittings-199 725.432 0 
main_fittings-2 662.299 0 
main_fittings-200 725.491 0 
main_fittings-201 746.591 0 
main_fittings-202 714.079 0 
main_fittings-204 718.405 0 
main_fittings-205 726.169 0 
main_fittings-206 710.16 0 
main_fittings-207 678.543 0 
main_fittings-208 676.646 0 
main_fittings-209 680.185 0 
main_fittings-210 664.32 0 
main_fittings-211 664.592 0 
main_fittings-212 664.099 0 
main_fittings-213 648.597 0 
main_fittings-214 648.738 0 
main_fittings-215 649.014 0 
main_fittings-216 658.21 0 
main_fittings-217 658.111 0 
main_fittings-218 657.712 0 
main_fittings-219 718.96 0 
main_fittings-220 717.893 0 
main_fittings-221 717.477 0 
main_fittings-222 717.652 0 
main_fittings-223 717.614 0 
main_fittings-224 715.647 0 
main_fittings-225 715.504 0 
main_fittings-226 715.717 0 
main_fittings-227 716.469 0 
main_fittings-228 716.336 0 
main_fittings-229 713.435 0 
main_fittings-230 793.809 0 
main_fittings-231 794.195 0 
main_fittings-232 732.546 0 
main_fittings-233 799.37 0 
main_fittings-234 799.515 0 
main_fittings-235 801.264 0 
main_fittings-236 789.2 0 
main_fittings-237 789.176 0 
main_fittings-238 785.489 0 
main_fittings-239 794.429 0 
main_fittings-240 795.165 0 
main_fittings-241 792.098 0 
main_fittings-242 811.084 0 
main_fittings-243 808.387 0 
main_fittings-244 808.364 0 
main_fittings-245 795.006 0 
main_fittings-246 795.449 0 
main_fittings-247 702.823 0 
main_fittings-248 679.368 0 
main_fittings-250 694.833 0 
main_fittings-251 693.784 0 
main_fittings-252 694.259 0 
main_fittings-253 695.158 0 
main_fittings-255 695.163 0 
main_fittings-256 695.301 0 
main_fittings-257 694.621 0 
main_fittings-258 730.536 0 
main_fittings-259 747.841 0 
main_fittings-260 747.66 0 
main_fittings-261 747.287 0 
main_fittings-262 746.372 0 
main_fittings-263 746.498 0 
main_fittings-264 747.652 0 
main_fittings-265 747.113 0 
main_fittings-266 747.13 0 
main_fittings-267 746.82 0 
main_fittings-268 763.511 0 
main_fittings-3 662.609 0 
main_fittings-4 645.435 0 
main_fittings-5 647.628 0 
main_fittings-6 648.889 0 
main_fittings-71 733.173 0 
main_fittings-72 732.816 0 
main_fittings-73 729.44 0 
main_fittings-74 808.288 0 
main_fittings-75 740.067 0 
main_fittings-76 737.761 0 
main_fittings-77 756.233 0 
main_fittings-78 748.833 0 
main_fittings-79 932.966 0 
main_fittings-80 937.002 0 
main_fittings-81 921.521 0 
main_fittings-82 931 0 
main_fittings-83 788.981 0 
main_fittings-84 789.004 0 
main_fittings-85 788.642 0 
main_fittings-86 736.517 0 
main_fittings-87 712.138 0 
main_fittings-88 732.621 0 
main_fittings-89 695.891 0 
main_fittings-90 750.624 0 
main_fittings-91 802.625 0 
main_fittings-92 793.712 0 
main_fittings-93 831.025 0 
main_fittings-94 785.755 0 
main_fittings-95 810.613 0 
main_fittings-96 810.42 0 
main_fittings-97 810.742 0 
main_fittings-98 887.368 0 
main_fittings-99 903.375 0 
meter-3 934.336 0 
meter-4 813.153 0 
J-1 649.05 0 
J-3 681.93 0 
J-4 747.41 0 
J-15 746.26 0 
J-18 745.96 0 
J-19 745.91 0 
J-20 743.93 0 
J-21 775.44 0 
J-22 697.91 0 
J-23 750.01 0 
J-24 750.01 0 
J-26 695.58 0 
J-27 696 0 
J-29 697.88 0 
J-33 767.53 0 
J-34 799.34 0 
J-35 775.44 0 
J-36 744.81 0 
J-38 814 0 
J-40 663.75 0 
J-43 824.71 0 
J-44 725.57 0 
J-46 759.54 0 
J-47 804.79 0 
J-48 743.14 0 
J-50 733.15 0 
J-51 696.58 0 
J-52 796.22 0 
J-53 662.71 0 
J-55 663.41 0 
J-56 786.5 0 
J-58 746.69 0 
J-60 760.44 0 
J-61 717.82 0 
J-63 761.3 0 
J-64 726 0 
J-66 698.26 0 
J-67 698.26 0 
J-69 735.93 0 
J-70 795.24 0 
J-71 703.53 0 
J-72 743.4 0 
J-75 887.61 0 
J-76 659.24 0 
J-78 743.43 0 
J-79 730.37 0 
J-81 745.86 0 
J-82 726.62 0 
J-83 747.53 0 
J-85 789.77 0 
J-86 720.71 0 
J-87 775.2 0 
J-88 673.38 0 
J-90 707.92 0 
J-91 709.07 0 
J-93 663.31 0 
J-94 708.21 0 
J-95 771.09 0 
J-96 763.93 0 
J-98 704.79 0 
J-100 709.53 0 
J-102 748.43 0 
J-103 741.46 0 
J-105 773.9 0 
J-106 746.6 0 
J-108 764.28 0 
J-109 756.24 0 
J-110 733.74 0 
J-111 733.1 0 
J-112 743.81 0 
J-113 714 0 
J-115 745.57 0 
J-116 728.5 0 
J-117 744.88 0 
J-118 755.43 0 
J-119 751.17 0 
J-120 644.93 0 
J-122 747.71 0 
J-123 645.68 0 
J-124 725.08 0 
J-125 761.26 0 
J-126 751.38 0 
J-128 748.54 0 
J-129 731.55 0 
J-130 729.23 0 
J-131 765.7 0 
J-132 759.91 0 
J-133 656.89 0 
J-135 698.21 0 
J-138 751.43 0 
J-139 694.49 0 
J-142 694.8 0 
J-143 745 0 
J-144 774.75 0 
J-145 673.24 0 
J-146 695.3 0 
J-147 662.54 0 
J-148 649.05 0 
J-149 771.06 0 
J-151 758.37 0 
J-152 712.83 0 
J-153 740 0 
J-156 710.21 0 
J-157 745.13 0 
J-158 745.63 0 
J-159 814.45 0 
J-161 704.47 0 
J-163 734 0 
J-164 747.69 0 
J-167 764.34 0 
J-169 748.76 0 
J-171 736 0 
J-172 793 0 
J-174 744.85 0 
J-175 745 0 
J-176 744.99 0 
J-177 702.3 0 
J-180 764.32 0 
J-181 684.31 0 
J-182 730 0 
J-191 784 0 
J-196 699.7 0 
J-201 737 0 
J-202 698.26 0 
J-206 725 0 
J-211 703 0 
J-217 715 0 
J-218 744 0 
J-220 751.5 0 
J-224 744.9 0 
J-225 670 0 
J-226 745 0 
J-233 746 0 
J-237 742.16 0 
J-242 730 0 
J-246 655 0 
J-247 694 0 
J-248 694.109 0 
J-250 931.986 0 
J-251 903.652 0 
J-254 694.214 0 
main_fittings-254 696.35 0 
J-261 852.53 0 
J-262 887.96 0 
J-263 750.21 0 
J-264 736.07 0 
J-267 742.14 0 
J-268 752.58 0 
J-269 745.95 0 
J-270 696.76 0 
J-271 766.42 0 
J-272 744.8 0 
J-273 813.75 0 
J-278 729.17 0 
J-279 735.79 0 
J-280 733.9 0 
J-281 725.17 0 
J-282 722.43 0 
J-283 724.1 0 
J-284 724.54 0 
J-286 724.41 0 
J-287 750 0 
J-288 749.32 0 
J-293 764.9 0 
J-294 695.69 0 
J-295 731.72 0 
J-297 746.36 0 
J-298 799.79 0 
J-299 809 0 
J-300 771.51 0 
J-301 769.09 0 
J-302 782.72 0 
J-303 789.7 0 
J-305 795.51 0 
J-306 750.4 0 
J-307 739.82 0 
J-308 746.4 0 
J-309 741.69 0 
J-310 732.22 0 
J-312 738.07 0 
J-313 647 0 
J-314 744.33 0 
J-315 741.52 0 
J-316 837.38 0 
J-317 743.77 0 
J-318 726.76 0 
J-319 717.43 0 
J-320 679.95 0 
J-321 689.04 0 
J-322 697.92 0 
J-323 729.73 0 
J-324 763.12 0 
J-334 759.41 0 
J-335 718.66 0 
J-336 716.31 0 
J-337 725.79 0 
J-339 724.55 0 
J-340 720.06 0 
J-341 731.94 0 
J-344 731.52 0 
J-347 737.34 0 
J-350 761.04 0 
J-352 767.3 0 
J-354 743.73 0 
J-355 745.8 0 
J-356 766.23 0 
J-357 756.99 0 
J-358 750.44 0 
J-359 765.7 0 
J-360 768.74 0 
J-361 780.03 0 
J-362 793.79 0 
J-363 801.21 0 
J-364 917.44 0 
J-365 893.03 0 
J-366 807.24 0 
J-367 750.17 0 
J-368 755.41 0 
J-369 759.3 0 
J-370 803.63 0 
J-371 811.47 0 
J-372 850.9 0 
J-379 681.73 0 
J-381 724.38 0 
J-382 716.39 0 
J-383 721.69 0 
J-384 699.16 0 
J-398 712.24 0 
J-412 932.579 0 
J-413 807 0 
J-414 815.16 0 
J-415 815.698 0 
J-416 788.607 0 
J-422 790 0 
J-423 790 0 
145 924.831 0 
FHW-002 837.382 0 
FHW-003 786.501 0 
N-001 745.855 0 
N-002 746.404 0 
N-003 739.819 0 
N-004 726.658 0 
N-005 714.778 0 
N-006 750.396 0 
N-007 699.304 0 
N-008 699.664 0 
N-009 696.488 0 
N-010 696.757 0 
N-011 695.577 0 
N-012 696.576 0 
N-013 695.69 0 
N-014 698.211 0 
N-015 709.073 0 
N-016 720.705 0 
N-017 709.534 0 
N-018 729.225 0 
N-019 735.94 0 
N-020 743.402 0 
N-021 739.796 0 
N-022 745.57 0 
N-023 729.173 0 
N-024 727.443 0 
N-025 733.742 0 
161 775.203 0 
N-027 702.303 0 
N-028 718.663 0 
N-029 716.31 0 
N-030 662.543 0 
N-031 663.332 0 
N-032 730.371 0 
N-033 732.221 0 
N-034 731.944 0 
N-035 720.061 0 
N-036 701.45 0 
N-037 699.162 0 
N-038 847.324 0 
N-039 707.916 0 
N-040 731.518 0 
N-041 731.717 0 
N-042 775.964 0 
N-043 749.31 0 
N-044 749.322 0 
N-045 750 0 
N-046 698.258 0 
N-047 725.12 0 
N-048 724.544 0 
N-049 724.103 0 
N-050 725.17 0 
N-051 722.431 0 
N-052 724.411 0 
N-053 721.69 0 
N-054 716.392 0 
N-055 724.382 0 
N-056 764.895 0 
N-057 735.932 0 
N-058 738.07 0 
N-059 739.897 0 
N-060 741.69 0 
N-061 744.547 0 
N-062 746.472 0 
N-063 668.921 0 
N-064 673.236 0 
N-065 681.731 0 
N-066 679.419 0 
N-067 676.219 0 
N-068 677.299 0 
N-069 673.377 0 
N-070 664.927 0 
135 656.299 0 
N-072 663.751 0 
N-073 662.713 0 
N-074 663.409 0 
N-075 663.31 0 
N-076 659.239 0 
N-077 649.046 0 
N-078 649.045 0 
N-079 656.894 0 
N-080 646.353 0 
N-081 645.678 0 
S-001 804.791 0 
143 850.902 0 
S-003 811.465 0 
S-004 803.631 0 
S-005 795.508 0 
S-006 731.706 0 
S-007 782.719 0 
S-008 769.088 0 
S-009 763.121 0 
S-010 759.301 0 
S-011 755.409 0 
S-012 750.168 0 
S-013 759.912 0 
S-014 725.081 0 
S-015 721.536 0 
S-016 727.693 0 
S-017 703.525 0 
S-018 726.617 0 
S-019 747.712 0 
S-020 791.492 0 
S-021 809.553 0 
S-022 806.368 0 
S-023 799.762 0 
S-024 808.999 0 
79 807.236 0 
S-026 839.027 0 
S-027 852.529 0 
S-028 887.961 0 
S-029 917.44 0 
S-030 906.51 0 
S-031 813.752 0 
S-032 904.152 0 
181 921.175 0 
S-034 801.206 0 
S-035 793.794 0 
S-036 780.03 0 
S-037 768.74 0 
S-038 765.703 0 
S-039 753.919 0 
S-040 752.577 0 
S-041 745.627 0 
S-042 750.443 0 
S-043 756.987 0 
S-044 766.23 0 
S-045 774.718 0 
S-046 786.245 0 
S-047 794.444 0 
S-048 746.3 0 
S-049 745.796 0 
S-050 743.73 0 
S-051 748.313 0 
S-052 704.79 0 
S-053 746.364 0 
S-054 753.999 0 
S-055 758.732 0 
S-056 767.296 0 
S-057 794.226 0 
S-058 789.695 0 
S-059 773.098 0 
61 764.279 0 
S-061 765.7 0 
S-062 767.026 0 
S-063 761.037 0 
S-064 748.426 0 
S-065 743.805 0 
S-066 745.126 0 
S-067 651.028 0 
S-068 750 0 
S-069 751.433 0 
S-070 746.601 0 
S-071 744.798 0 
163 743.425 0 
S-073 737.34 0 
S-074 745.952 0 
S-075 739.864 0 
S-076 733.899 0 
S-077 735.792 0 
S-078 750.165 0 
S-079 746.687 0 
S-080 747.222 0 
S-081 748.535 0 
S-082 755.428 0 
S-083 759.405 0 
S-084 766.737 0 
S-085 771.507 0 
S-086 747.685 0 
W-004 775.437 0 
W-005 766.422 0 
W-006 773.9 0 
W-007 771.093 0 
W-008 761.26 0 
W-009 748.544 0 
W-010 756.238 0 
20 746.262 0 
W-012 750.208 0 
W-013 743.772 0 
W-014 738.999 0 
W-015 726.764 0 
W-016 717.432 0 
W-017 679.946 0 
W-018 689.043 0 
W-019 697.922 0 
W-020 729.726 0 
W-021 731.006 0 
W-022 681.925 0 
W-023 736.066 0 
W-024 741.524 0 
W-025 744.328 0 
W-026 744.878 0 
W-027 747.533 0 
W-028 751.384 0 
W-029 763.929 0 
AV-1 805.315 0 
AV-2 754.482 0 
AV-3 889.259 0 
24-A 694.793 0 
24-B 694.793 0 
25-A 695.461 0 
25-B 695.461 0 
26-A 694.872 0 
26-B 694.872 0 
27-A 694.796 0 
27-B 694.796 0 
29-A 694.369 0 
29-B 694.369 0 
30-A 694.409 0 
30-B 694.409 0 
31-A 694.435 0 
31-B 694.435 0 
32-A 694.493 0 
32-B 694.493 0 
33-A 704.473 0 
33-B 704.473 0 
34-A 717.96 0 
34-B 717.96 0 
35-A 717.754 0 
35-B 717.754 0 
36-A 717.824 0 
36-B 717.824 0 
37-A 717.554 0 
37-B 717.554 0 
38-A 718.937 0 
38-B 718.937 0 
39-A 718.158 0 
39-B 718.158 0 
40-A 712.239 0 
40-B 712.239 0 
41-A 712.833 0 
41-B 712.833 0 
42-A 712.934 0 
42-B 712.934 0 
43-A 713.397 0 
43-B 713.397 0 
44-A 725.706 0 
44-B 725.706 0 
45-A 726.792 0 
45-B 726.792 0 
46-A 729.97 0 
46-B 729.97 0 
47-A 730.066 0 
47-B 730.066 0 
48-A 739.375 0 
48-B 739.375 0 
49-A 749.122 0 
49-B 749.122 0 
50-A 747.495 0 
50-B 747.495 0 
51-A 746.077 0 
51-B 746.077 0 
52-A 745.148 0 
52-B 745.148 0 
53-A 744.989 0 
53-B 744.989 0 
54-A 745.962 0 
54-B 745.962 0 
55-A 745.801 0 
55-B 745.801 0 
56-A 745.978 0 
56-B 745.978 0 
58-A 745.354 0 
58-B 745.354 0 
59-A 745.105 0 
59-B 745.105 0 
60-A 766.345 0 
60-B 766.345 0 
61-A 767.383 0 
61-B 767.383 0 
62-A 731.554 0 
62-B 731.554 0 
63-A 726.577 0 
63-B 726.577 0 
64-A 725.572 0 
64-B 725.572 0 
66-A 725.79 0 
66-B 725.79 0 
67-A 715.53 0 
67-B 715.53 0 
68-A 694.555 0 
68-B 694.555 0 
70-A 716.342 0 
70-B 716.342 0 
71-A 705.028 0 
71-B 705.028 0 
72-A 705.418 0 
72-B 705.418 0 
74-A 705.393 0 
74-B 705.393 0 
75-A 734.403 0 
75-B 734.403 0 
76-A 694.978 0 
76-B 694.978 0 
77-A 697.878 0 
77-B 697.878 0 
78-A 721.589 0 
78-B 721.589 0 
79-A 725.695 0 
79-B 725.695 0 
80-A 735.622 0 
80-B 735.622 0 
81-A 734.407 0 
81-B 734.407 0 
82-A 734.939 0 
82-B 734.939 0 
83-A 735.399 0 
83-B 735.399 0 
84-A 735.141 0 
84-B 735.141 0 
85-A 737.47 0 
85-B 737.47 0 
86-A 738.041 0 
86-B 738.041 0 
87-A 737.94 0 
87-B 737.94 0 
88-A 737.034 0 
88-B 737.034 0 
89-A 736.924 0 
89-B 736.924 0 
90-A 737.2 0 
90-B 737.2 0 
91-A 736.937 0 
91-B 736.937 0 
92-A 738.37 0 
92-B 738.37 0 
93-A 738.542 0 
93-B 738.542 0 
94-A 738.178 0 
94-B 738.178 0 
95-A 738.383 0 
95-B 738.383 0 
96-A 738.386 0 
96-B 738.386 0 
97-A 741.049 0 
97-B 741.049 0 
98-A 741.108 0 
98-B 741.108 0 
99-A 741.064 0 
99-B 741.064 0 
100-A 743.555 0 
100-B 743.555 0 
101-A 744.179 0 
101-B 744.179 0 
102-A 743.236 0 
102-B 743.236 0 
103-A 746.243 0 
103-B 746.243 0 
104-A 739.022 0 
104-B 739.022 0 
105-A 735.692 0 
105-B 735.692 0 
106-A 728.763 0 
106-B 728.763 0 
108-A 725.918 0 
108-B 725.918 0 
109-A 718.1 0 
109-B 718.1 0 
110-A 721.315 0 
110-B 721.315 0 
111-A 712.761 0 
111-B 712.761 0 
112-A 792.898 0 
112-B 792.898 0 
113-A 719.671 0 
113-B 719.671 0 
114-A 726.349 0 
114-B 726.349 0 
115-A 726.068 0 
115-B 726.068 0 
116-A 726.716 0 
116-B 726.716 0 
117-A 723.46 0 
117-B 723.46 0 
118-A 723.511 0 
118-B 723.511 0 
119-A 724.553 0 
119-B 724.553 0 
121-A 722.373 0 
121-B 722.373 0 
122-A 722.812 0 
122-B 722.812 0 
123-A 708.968 0 
123-B 708.968 0 
124-A 708.212 0 
124-B 708.212 0 
125-A 679.492 0 
125-B 679.492 0 
126-A 679.378 0 
126-B 679.378 0 
127-A 679.706 0 
127-B 679.706 0 
128-A 676.901 0 
128-B 676.901 0 
129-A 664.392 0 
129-B 664.392 0 
130-A 664.433 0 
130-B 664.433 0 
131-A 663.264 0 
131-B 663.264 0 
132-A 664.195 0 
132-B 664.195 0 
133-A 664.489 0 
133-B 664.489 0 
134-A 648.752 0 
134-B 648.752 0 
135-A 662.604 0 
135-B 662.604 0 
136-A 657.607 0 
136-B 657.607 0 
138-A 648.095 0 
138-B 648.095 0 
207-A 932.699 0 
207-B 932.699 0 
208-A 810.253 0 
208-B 810.253 0 
209-A 824.708 0 
209-B 824.708 0 
210-A 903.707 0 
210-B 903.707 0 
212-A 815.707 0 
212-B 815.707 0 
213-A 812.142 0 
213-B 812.142 0 
214-A 809.218 0 
214-B 809.218 0 
215-A 809.668 0 
215-B 809.668 0 
216-A 809.428 0 
216-B 809.428 0 
217-A 813.103 0 
217-B 813.103 0 
218-A 813.212 0 
218-B 813.212 0 
219-A 839.8 0 
219-B 839.8 0 
220-A 887.61 0 
220-B 887.61 0 
223-A 798.231 0 
223-B 798.231 0 
224-A 736.852 0 
224-B 736.852 0 
225-A 786.191 0 
225-B 786.191 0 
226-A 788.745 0 
226-B 788.745 0 
227-A 789.345 0 
227-B 789.345 0 
229-A 792.159 0 
229-B 792.159 0 
230-A 793.461 0 
230-B 793.461 0 
231-A 793.111 0 
231-B 793.111 0 
232-A 796.224 0 
232-B 796.224 0 
233-A 795.235 0 
233-B 795.235 0 
234-A 799.341 0 
234-B 799.341 0 
235-A 808 0 
235-B 808 0 
238-A 811.92 0 
238-B 811.92 0 
239-A 784.174 0 
239-B 784.174 0 
240-A 795.319 0 
240-B 795.319 0 
241-A 796.295 0 
241-B 796.295 0 
242-A 797.089 0 
242-B 797.089 0 
243-A 784.964 0 
243-B 784.964 0 
244-A 771.421 0 
244-B 771.421 0 
245-A 775.177 0 
245-B 775.177 0 
246-A 771.059 0 
246-B 771.059 0 
247-A 761.298 0 
247-B 761.298 0 
248-A 764.321 0 
248-B 764.321 0 
249-A 764.34 0 
249-B 764.34 0 
250-A 684.309 0 
250-B 684.309 0 
251-A 748.279 0 
251-B 748.279 0 
252-A 748.29 0 
252-B 748.29 0 
253-A 748.572 0 
253-B 748.572 0 
254-A 765.573 0 
254-B 765.573 0 
255-A 764.493 0 
255-B 764.493 0 
256-A 763.805 0 
256-B 763.805 0 
257-A 767.528 0 
257-B 767.528 0 
258-A 765.991 0 
258-B 765.991 0 
259-A 764.576 0 
259-B 764.576 0 
260-A 764.278 0 
260-B 764.278 0 
261-A 765.932 0 
261-B 765.932 0 
262-A 764.75 0 
262-B 764.75 0 
263-A 759.54 0 
263-B 759.54 0 
264-A 755.952 0 
264-B 755.952 0 
265-A 755.144 0 
265-B 755.144 0 
266-A 747.318 0 
266-B 747.318 0 
267-A 747.078 0 
267-B 747.078 0 
268-A 745.267 0 
268-B 745.267 0 
269-A 746.337 0 
269-B 746.337 0 
270-A 744.986 0 
270-B 744.986 0 
271-A 745.913 0 
271-B 745.913 0 
272-A 746.165 0 
272-B 746.165 0 
273-A 751.17 0 
273-B 751.17 0 
274-A 751.39 0 
274-B 751.39 0 
275-A 754.485 0 
275-B 754.485 0 
276-A 755.128 0 
276-B 755.128 0 
278-A 758.462 0 
278-B 758.462 0 
279-A 758.683 0 
279-B 758.683 0 
280-A 758.279 0 
280-B 758.279 0 
281-A 758.344 0 
281-B 758.344 0 
282-A 743.932 0 
282-B 743.932 0 
283-A 743.589 0 
283-B 743.589 0 
284-A 743.144 0 
284-B 743.144 0 
285-A 669.428 0 
285-B 669.428 0 
286-A 676.371 0 
286-B 676.371 0 
287-A 758.367 0 
287-B 758.367 0 
288-A 760.436 0 
288-B 760.436 0 
289-A 765.65 0 
289-B 765.65 0 
290-A 764.449 0 
290-B 764.449 0 
291-A 760.876 0 
291-B 760.876 0 
293-A 744.812 0 
293-B 744.812 0 
294-A 744.704 0 
294-B 744.704 0 
295-A 748.43 0 
295-B 748.43 0 
296-A 743.116 0 
296-B 743.116 0 
297-A 741.464 0 
297-B 741.464 0 
298-A 746.183 0 
298-B 746.183 0 
299-A 740.891 0 
299-B 740.891 0 
300-A 740.159 0 
300-B 740.159 0 
301-A 746.994 0 
301-B 746.994 0 
303-A 781.763 0 
303-B 781.763 0 
304-A 781.862 0 
304-B 781.862 0 
305-A 755.236 0 
305-B 755.236 0 
306-A 755.539 0 
306-B 755.539 0 
307-A 755.081 0 
307-B 755.081 0 
308-A 755.993 0 
308-B 755.993 0 
309-A 756.909 0 
309-B 756.909 0 
310-A 723.259 0 
310-B 723.259 0 
311-A 714.019 0 
311-B 714.019 0 
312-A 710.206 0 
312-B 710.206 0 
313-A 717.077 0 
313-B 717.077 0 
314-A 723.513 0 
314-B 723.513 0 
315-A 762.812 0 
315-B 762.812 0 
316-A 765.128 0 
316-B 765.128 0 
317-A 764.113 0 
317-B 764.113 0 
318-A 758.665 0 
318-B 758.665 0 
319-A 758.722 0 
319-B 758.722 0 
321-A 752.48 0 
321-B 752.48 0 
322-A 753.241 0 
322-B 753.241 0 
323-A 753.595 0 
323-B 753.595 0 
324-A 747.96 0 
324-B 747.96 0 
325-A 744.468 0 
325-B 744.468 0 
326-A 743.313 0 
326-B 743.313 0 
327-A 742.183 0 
327-B 742.183 0 
329-A 741.283 0 
329-B 741.283 0 
330-A 730.545 0 
330-B 730.545 0 
332-A 741.413 0 
332-B 741.413 0 
333-A 736.836 0 
333-B 736.836 0 
334-A 743.495 0 
334-B 743.495 0 
337-A 788.025 0 
337-B 788.025 0 
338-A 786.267 0 
338-B 786.267 0 
339-A 728.997 0 
339-B 728.997 0 
340-A 785.041 0 
340-B 785.041 0 
341-A 774.638 0 
341-B 774.638 0 
342-A 752.161 0 
342-B 752.161 0 
343-A 735.319 0 
343-B 735.319 0 
344-A 733.131 0 
344-B 733.131 0 
346-A 733.854 0 
346-B 733.854 0 
347-A 733.154 0 
347-B 733.154 0 
348-A 715.666 0 
348-B 715.666 0 
349-A 708.129 0 
349-B 708.129 0 
353-A 740.219 0 
353-B 740.219 0 
354-A 755.208 0 
354-B 755.208 0 
355-A 750.71 0 
355-B 750.71 0 
356-A 754.41 0 
356-B 754.41 0 
2141-A 746.16 0 
2141-B 746.16 0 
2144-A 725.59 0 
2144-B 725.59 0 
2147-A 704.09 0 
2147-B 704.09 0 
2150-A 704.98 0 
2150-B 704.98 0 
2153-A 726.38 0 
2153-B 726.38 0 
2156-A 722.39 0 
2156-B 722.39 0 
2165-A 898.49 0 
2165-B 898.49 0 
2173-A 759.54 0 
2173-B 759.54 0 
2178-A 751.81 0 
2178-B 751.81 0 
2181-A 775 0 
2181-B 775 0 
2184-A 760.6 0 
2184-B 760.6 0 
2187-A 825.7 0 
2187-B 825.7 0 
2190-A 733.27 0 
2190-B 733.27 0 
2193-A 730.25 0 
2193-B 730.25 0 
2196-A 678.82 0 
2196-B 678.82 0 
2202-A 703.6 0 
2202-B 703.6 0 
2991-A 932.58 0 
2991-B 932.58 0 
2994-A 790 0 
2994-B 790 0 
3006-A 789 0 
3006-B 789 0 
3009-A 789 0 
3009-B 789 0 
3018-A 790 0 
3018-B 790 0 
2464-A 815.71 0 
2464-B 815.71 0 

[RESERVOIRS]
R-1 957 

[TANKS]
T-1 903.64 19.36 0 22.72 120 0.1 

[DEMANDS]
main_fittings-1 1.88571428571429 1/2ofMeasured 
main_fittings-100 1.88571428571429 1/2ofMeasured 
main_fittings-101 1.88571428571429 1/2ofMeasured 
main_fittings-102 1.88571428571429 1/2ofMeasured 
main_fittings-103 1.88571428571429 1/2ofMeasured 
main_fittings-104 1.88571428571429 1/2ofMeasured 
main_fittings-105 1.88571428571429 1/2ofMeasured 
main_fittings-106 1.88571428571429 1/2ofMeasured 
main_fittings-107 1.88571428571429 1/2ofMeasured 
main_fittings-108 1.88571428571429 1/2ofMeasured 
main_fittings-109 1.88571428571429 1/2ofMeasured 
main_fittings-110 1.88571428571429 1/2ofMeasured 
main_fittings-111 1.88571428571429 1/2ofMeasured 
main_fittings-112 1.88571428571429 1/2ofMeasured 
main_fittings-113 1.88571428571429 1/2ofMeasured 
main_fittings-114 1.88571428571429 1/2ofMeasured 
main_fittings-115 1.88571428571429 1/2ofMeasured 
main_fittings-118 2.82857142857143 1/2ofMeasured 
main_fittings-119 2.82857142857143 1/2ofMeasured 
main_fittings-120 2.82857142857143 1/2ofMeasured 
main_fittings-121 2.82857142857143 1/2ofMeasured 
main_fittings-122 2.82857142857143 1/2ofMeasured 
main_fittings-123 2.82857142857143 1/2ofMeasured 
main_fittings-124 2.82857142857143 1/2ofMeasured 
main_fittings-125 2.82857142857143 1/2ofMeasured 
main_fittings-126 2.82857142857143 1/2ofMeasured 
main_fittings-127 2.82857142857143 1/2ofMeasured 
main_fittings-128 2.82857142857143 1/2ofMeasured 
main_fittings-129 2.82857142857143 1/2ofMeasured 
main_fittings-130 2.82857142857143 1/2ofMeasured 
main_fittings-131 2.82857142857143 1/2ofMeasured 
main_fittings-132 2.82857142857143 1/2ofMeasured 
main_fittings-133 2.82857142857143 1/2ofMeasured 
main_fittings-134 2.82857142857143 1/2ofMeasured 
main_fittings-135 2.82857142857143 1/2ofMeasured 
main_fittings-136 2.82857142857143 1/2ofMeasured 
main_fittings-137 2.82857142857143 1/2ofMeasured 
main_fittings-138 2.82857142857143 1/2ofMeasured 
main_fittings-140 2.82857142857143 1/2ofMeasured 
main_fittings-141 2.82857142857143 1/2ofMeasured 
main_fittings-142 2.82857142857143 1/2ofMeasured 
main_fittings-143 2.82857142857143 1/2ofMeasured 
main_fittings-145 2.82857142857143 1/2ofMeasured 
main_fittings-146 2.82857142857143 1/2ofMeasured 
main_fittings-148 2.82857142857143 1/2ofMeasured 
main_fittings-149 2.82857142857143 1/2ofMeasured 
main_fittings-150 2.82857142857143 1/2ofMeasured 
main_fittings-151 2.82857142857143 1/2ofMeasured 
main_fittings-154 2.82857142857143 1/2ofMeasured 
main_fittings-155 1.88571428571429 1/2ofMeasured 
main_fittings-156 1.88571428571429 1/2ofMeasured 
main_fittings-157 1.88571428571429 1/2ofMeasured 
main_fittings-158 1.88571428571429 1/2ofMeasured 
main_fittings-159 1.88571428571429 1/2ofMeasured 
main_fittings-160 1.88571428571429 1/2ofMeasured 
main_fittings-161 1.88571428571429 1/2ofMeasured 
main_fittings-162 1.88571428571429 1/2ofMeasured 
main_fittings-163 1.88571428571429 1/2ofMeasured 
main_fittings-164 1.88571428571429 1/2ofMeasured 
main_fittings-165 1.88571428571429 1/2ofMeasured 
main_fittings-166 1.88571428571429 1/2ofMeasured 
main_fittings-167 1.88571428571429 1/2ofMeasured 
main_fittings-168 1.88571428571429 1/2ofMeasured 
main_fittings-169 1.88571428571429 1/2ofMeasured 
main_fittings-171 1.88571428571429 1/2ofMeasured 
main_fittings-172 1.88571428571429 1/2ofMeasured 
main_fittings-173 1.88571428571429 1/2ofMeasured 
main_fittings-174 1.88571428571429 1/2ofMeasured 
main_fittings-175 1.88571428571429 1/2ofMeasured 
main_fittings-176 1.88571428571429 1/2ofMeasured 
main_fittings-177 1.88571428571429 1/2ofMeasured 
main_fittings-178 1.88571428571429 1/2ofMeasured 
main_fittings-179 1.88571428571429 1/2ofMeasured 
main_fittings-180 1.88571428571429 1/2ofMeasured 
main_fittings-181 1.88571428571429 1/2ofMeasured 
main_fittings-182 1.88571428571429 1/2ofMeasured 
main_fittings-183 1.88571428571429 1/2ofMeasured 
main_fittings-184 1.88571428571429 1/2ofMeasured 
main_fittings-185 1.88571428571429 1/2ofMeasured 
main_fittings-186 1.88571428571429 1/2ofMeasured 
main_fittings-187 1.88571428571429 1/2ofMeasured 
main_fittings-188 1.88571428571429 1/2ofMeasured 
main_fittings-189 1.88571428571429 1/2ofMeasured 
main_fittings-190 1.88571428571429 1/2ofMeasured 
main_fittings-191 1.88571428571429 1/2ofMeasured 
main_fittings-192 1.88571428571429 1/2ofMeasured 
main_fittings-193 1.88571428571429 1/2ofMeasured 
main_fittings-194 1.88571428571429 1/2ofMeasured 
main_fittings-195 1.88571428571429 1/2ofMeasured 
main_fittings-196 1.88571428571429 1/2ofMeasured 
main_fittings-197 1.88571428571429 1/2ofMeasured 
main_fittings-198 1.88571428571429 1/2ofMeasured 
main_fittings-199 1.88571428571429 1/2ofMeasured 
main_fittings-2 1.88571428571429 1/2ofMeasured 
main_fittings-200 1.88571428571429 1/2ofMeasured 
main_fittings-201 1.88571428571429 1/2ofMeasured 
main_fittings-202 1.88571428571429 1/2ofMeasured 
main_fittings-204 1.88571428571429 1/2ofMeasured 
main_fittings-205 1.88571428571429 1/2ofMeasured 
main_fittings-206 1.88571428571429 1/2ofMeasured 
main_fittings-207 1.88571428571429 1/2ofMeasured 
main_fittings-208 1.88571428571429 1/2ofMeasured 
main_fittings-209 1.88571428571429 1/2ofMeasured 
main_fittings-210 1.88571428571429 1/2ofMeasured 
main_fittings-211 1.88571428571429 1/2ofMeasured 
main_fittings-212 1.88571428571429 1/2ofMeasured 
main_fittings-213 1.88571428571429 1/2ofMeasured 
main_fittings-214 1.88571428571429 1/2ofMeasured 
main_fittings-215 1.88571428571429 1/2ofMeasured 
main_fittings-216 1.88571428571429 1/2ofMeasured 
main_fittings-217 1.88571428571429 1/2ofMeasured 
main_fittings-218 1.88571428571429 1/2ofMeasured 
main_fittings-219 1.88571428571429 1/2ofMeasured 
main_fittings-220 1.88571428571429 1/2ofMeasured 
main_fittings-221 1.88571428571429 1/2ofMeasured 
main_fittings-222 1.88571428571429 1/2ofMeasured 
main_fittings-223 1.88571428571429 1/2ofMeasured 
main_fittings-224 1.88571428571429 1/2ofMeasured 
main_fittings-225 1.88571428571429 1/2ofMeasured 
main_fittings-226 1.88571428571429 1/2ofMeasured 
main_fittings-227 1.88571428571429 1/2ofMeasured 
main_fittings-228 1.88571428571429 1/2ofMeasured 
main_fittings-229 1.88571428571429 1/2ofMeasured 
main_fittings-230 1.88571428571429 1/2ofMeasured 
main_fittings-231 1.88571428571429 1/2ofMeasured 
main_fittings-232 1.88571428571429 1/2ofMeasured 
main_fittings-233 1.88571428571429 1/2ofMeasured 
main_fittings-234 1.88571428571429 1/2ofMeasured 
main_fittings-235 1.88571428571429 1/2ofMeasured 
main_fittings-236 1.88571428571429 1/2ofMeasured 
main_fittings-237 1.88571428571429 1/2ofMeasured 
main_fittings-238 1.88571428571429 1/2ofMeasured 
main_fittings-239 1.88571428571429 1/2ofMeasured 
main_fittings-240 1.88571428571429 1/2ofMeasured 
main_fittings-241 1.88571428571429 1/2ofMeasured 
main_fittings-242 1.88571428571429 1/2ofMeasured 
main_fittings-243 1.88571428571429 1/2ofMeasured 
main_fittings-244 1.88571428571429 1/2ofMeasured 
main_fittings-245 1.88571428571429 1/2ofMeasured 
main_fittings-246 1.88571428571429 1/2ofMeasured 
main_fittings-247 1.88571428571429 1/2ofMeasured 
main_fittings-248 1.88571428571429 1/2ofMeasured 
main_fittings-250 1.88571428571429 1/2ofMeasured 
main_fittings-251 1.88571428571429 1/2ofMeasured 
main_fittings-252 1.88571428571429 1/2ofMeasured 
main_fittings-253 1.88571428571429 1/2ofMeasured 
main_fittings-255 1.88571428571429 1/2ofMeasured 
main_fittings-256 1.88571428571429 1/2ofMeasured 
main_fittings-257 1.88571428571429 1/2ofMeasured 
main_fittings-258 1.88571428571429 1/2ofMeasured 
main_fittings-259 1.88571428571429 1/2ofMeasured 