; Filename: OPTION_2___TONGALA_Masterplanning_2043_Horizon__1.inp
; WNTR: 1.1.0
; Created: 2024-05-22 15:09:05
[TITLE]

[JUNCTIONS]
;ID                      Elevation       Demand Pattern                 
 300212X                    99.932388               0                            ;
 300212Y                    99.932388               0                            ;
 500199                        100.78        0.005674 NRW                        ;
 500200                        101.36               0                            ;
 500201                     99.927078        0.016484 Commercial                 ;
 500202                      99.92939        0.018059 NRW                        ;
 500203                        100.11        0.010956 NRW                        ;
 500204                     99.912537        0.020675 NRW                        ;
 500205                        100.64        0.031732 Commercial                 ;
 500207                         100.4               0                            ;
 500209                        100.75               0                            ;
 500210                     99.932388               0                            ;
 500211                     99.946877         3.2e-05 Commercial                 ;
 500212                     99.896294        0.009463 NRW                        ;
 500213                         99.78         0.00445 NRW                        ;
 500214                     99.909477        0.008329 NRW                        ;
 500215                     99.909477               0                            ;
 500216                     99.914093        0.003618 NRW                        ;
 500217                       100.262         0.02307 NRW                        ;
 500218                     99.970497               0                            ;
 500219                        100.42               0                            ;
 500220                     99.986633               0                            ;
 500222                        100.42               0                            ;
 500223                        100.49        0.006787 NRW                        ;
 500224                     99.929817        0.010315 NRW                        ;
 500225                     99.983429               0                            ;
 500226                     99.976837        0.018171 NRW                        ;
 500227                        100.37               0                            ;
 500228                      99.96553        0.012927 NRW                        ;
 500229                        100.32        0.014776 NRW                        ;
 500230                     99.958961        0.012056 NRW                        ;
 500231                      99.94342        0.014658 NRW                        ;
 500232                        100.64        0.003287 NRW                        ;
 500233                     99.935898        0.004787 Commercial                 ;
 500234                        100.39         0.01955 NRW                        ;
 500235                     99.978668        0.010203 NRW                        ;
 500236                        100.21        0.006076 NRW                        ;
 500237                     99.962303         0.08093 Commercial                 ;
 500238                        100.12        0.009284 NRW                        ;
 500239                        100.72        0.007359 NRW                        ;
 500240                         100.4               0                            ;
 500241                        100.21               0                            ;
 500242                     99.978668               0                            ;
 500243                      99.96228        0.010894 NRW                        ;
 500244                     99.939194               0                            ;
 500245                         99.76        0.007332 NRW                        ;
 500246                     99.944748               0                            ;
 500247                     99.943192        0.006726 NRW                        ;
 500248                     99.932503               0                            ;
 500249                        100.78               0                            ;
 500250                     99.903938        0.009945 NRW                        ;
 500252                     99.988129        0.004248 NRW                        ;
 500253                     99.985451               0                            ;
 500254                     99.987587        0.004264 NRW                        ;
 500255                      99.98349        0.007043 NRW                        ;
 500256                        100.53        0.011102 NRW                        ;
 500257                     99.985573         0.00195 NRW                        ;
 500258                     99.906372        0.010733 NRW                        ;
 500259                     99.910187        0.000412 Commercial                 ;
 500262                    100.024803        0.002644 NRW                        ;
 500263                     99.952881         0.01019 NRW                        ;
 500264                     99.911324        0.003835 NRW                        ;
 500265                     99.944748               0                            ;
 500267                     99.943192        0.000809 NRW                        ;
 500268                     99.973984        0.004625 NRW                        ;
 500269                     99.915649        0.010626 NRW                        ;
 500271                       99.9617        0.007193 NRW                        ;
 500272                     99.982628        0.012238 NRW                        ;
 500273                     99.920929        0.018965 NRW                        ;
 506165                     99.957932        0.007663 NRW                        ;
 507003                     99.944748               0                            ;
 507004                        100.17        0.001427 Commercial                 ;
 507005                     99.944748               0                            ;
 507006                     99.944748               0                            ;
 507007                      99.93692        0.007893 Commercial                 ;
 507008                     99.947472        1.231024 Commercial                 ;
 507009                      99.97139         0.08074 Commercial                 ;
 507010                        100.17        0.022261 NRW                        ;
 507011                        100.17               0                            ;
 507012                         99.97           10.18 LU_Abbatoir_2043           ;
 507233                        100.75               0                            ;
 507234                     99.964996               0                            ;
 507235                     99.968674        0.002629 NRW                        ;
 507236                     99.971642        0.004981 NRW                        ;
 507237                     99.971642               0                            ;
 507239                     99.943192        0.006086 Commercial                 ;
 507240                     99.891052               0                            ;
 507241                     99.890633           0.022 NRW                        ;
 507242                     99.890633        0.001422 NRW                        ;
 507243                     99.917198        0.004328 NRW                        ;
 507244                        100.57               0                            ;
 507245                        100.57               0                            ;
 507246                     99.906677        0.024054 NRW                        ;
 507247                     99.902977        0.005997 NRW                        ;
 507248                    100.023598        0.007145 NRW                        ;
 507249                    100.024803        0.014039 NRW                        ;
 507250                     99.985291        0.017473 NRW                        ;
 507251                     99.987244        0.003159 NRW                        ;
 507446                     99.949181               0                            ;
 507447                      99.95266               0                            ;
 507448                      99.95266        0.008971 NRW                        ;
 507449                     99.949181               0                            ;
 507450                      99.95266               0                            ;
 507452                     99.949181         0.03351 NRW                        ;
 507453                     99.949181               0                            ;
 507454                     99.941177               0                            ;
 507455                     99.944717               0                            ;
 507741                     99.964493        0.013638 NRW                        ;
 507742                     99.900871        0.027164 NRW                        ;
 507743                     99.914093        0.004908 NRW                        ;
 507744                     99.995209          0.4793 Commercial                 ;
 507745                     99.983429               0                            ;
 507746                     99.983429               0                            ;
 507747                     99.962303         0.01734 Commercial                 ;
 507748                     99.962303               0                            ;
 507753                     99.914902        0.012121 NRW                        ;
 507754                     99.932388        0.036772 Commercial                 ;
 700102X                       100.32        0.005483 NRW                        ;
 700102Y                       100.32               0                            ;
 700103X                       100.32               0                            ;
 700103Y                       100.32        0.002631 Commercial                 ;
 700104X                       100.75        0.007253 NRW                        ;
 700104Y                       100.75               0                            ;
 700105X                       100.64               0                            ;
 700105Y                       100.64        0.001807 Commercial                 ;
 700106X                    99.935898        0.015563 NRW                        ;
 700106Y                    99.935898               0                            ;
 700107X                    99.970497        0.012645 NRW                        ;
 700107Y                    99.970497               0                            ;
 700108X                       100.39               0                            ;
 700108Y                       100.39               0                            ;
 700109X                       100.49               0                            ;
 700109Y                       100.49               0                            ;
 700110X                       100.49        0.025346 NRW                        ;
 700110Y                       100.49               0                            ;
 700111X                    99.958961               0                            ;
 700111Y                    99.958961        0.015563 NRW                        ;
 700112X                       100.21        0.009256 NRW                        ;
 700112Y                       100.21               0                            ;
 700113X                        100.4               0                            ;
 700113Y                        100.4        0.004902 NRW                        ;
 700114X                        100.4               0                            ;
 700114Y                        100.4               0                            ;
 700115X                       100.12               0                            ;
 700115Y                       100.12               0                            ;
 700116X                       100.72        0.010288 NRW                        ;
 700116Y                       100.72               0                            ;
 700117X                        100.4        0.009043 NRW                        ;
 700117Y                        100.4               0                            ;
 700118X                        100.4               0                            ;
 700118Y                        100.4               0                            ;
 700119X                        100.4               0                            ;
 700119Y                        100.4               0                            ;
 700120X                        100.4               0                            ;
 700120Y                        100.4               0                            ;
 700121X                       100.37               0                            ;
 700121Y                       100.37        0.008396 NRW                        ;
 700122X                       100.37               0                            ;
 700122Y                       100.37               0                            ;
 700123X                       100.42               0                            ;
 700123Y                       100.42        0.009043 NRW                        ;
 700124X                       100.21               0                            ;
 700124Y                       100.21               0                            ;
 700125X                    99.983429        0.008394 NRW                        ;
 700125Y                    99.983429               0                            ;
 700126X                    99.983429               0                            ;
 700126Y                    99.983429               0                            ;
 700127X                    99.970047        0.006289 NRW                        ;
 700127Y                    99.970047        0.001735 NRW                        ;
 700128X                    99.978668               0                            ;
 700128Y                    99.978668        0.010066 NRW                        ;
 700129X                    99.971642        0.009207 NRW                        ;
 700129Y                    99.971642               0                            ;
 700130X                    99.968674               0                            ;
 700130Y                    99.968674               0                            ;
 700131X                    99.971642        0.004796 NRW                        ;
 700131Y                    99.971642        0.000138 NRW                        ;
 700132X                    99.964996               0                            ;
 700132Y                    99.964996        0.002467 NRW                        ;
 700133X                     99.96553               0                            ;
 700133Y                     99.96553               0                            ;
 700134X                     99.96553               0                            ;
 700134Y                     99.96553               0                            ;
 700135X                    99.939194               0                            ;
 700135Y                    99.939194               0                            ;
 700136X                    99.939194               0                            ;
 700136Y                    99.939194               0                            ;
 700137X                    99.939194        0.016222 NRW                        ;
 700137Y                    99.939194               0                            ;
 700138X                     99.93502               0                            ;
 700138Y                     99.93502        0.013037 NRW                        ;
 700139X                    99.932907               0                            ;
 700139Y                    99.932907        0.009271 NRW                        ;
 700140X                    99.909477        0.003162 NRW                        ;
 700140Y                    99.909477               0                            ;
 700141X                    99.909477               0                            ;
 700141Y                    99.909477        0.029793 NRW                        ;
 700142X                    99.929817               0                            ;
 700142Y                    99.929817        0.007872 NRW                        ;
 700143X                    99.914093        0.010733 NRW                        ;
 700143Y                    99.914093               0                            ;
 700144X                        99.78               0                            ;
 700144Y                        99.78        0.007713 NRW                        ;
 700145X                        99.78        0.015429 NRW                        ;
 700145Y                        99.78               0                            ;
 700146X                        99.76               0                            ;
 700146Y                        99.76        0.015429 NRW                        ;
 700147X                        99.76        0.013037 NRW                        ;
 700147Y                        99.76               0                            ;
 700148X                    99.896294        0.029793 NRW                        ;
 700148Y                    99.896294               0                            ;
 700149X                       100.57               0                            ;
 700149Y                       100.57               0                            ;
 700150X                       100.11               0                            ;
 700150Y                       100.11        0.004328 NRW                        ;
 700151X                     99.92939               0                            ;
 700151Y                     99.92939        0.019384 NRW                        ;
 700152X                       101.36         0.01647 NRW                        ;
 700152Y                       101.36               0                            ;
 700153X                       100.78        0.016419 NRW                        ;
 700153Y                       100.78               0                            ;
 700154X                       100.75               0                            ;
 700154Y                       100.75               0                            ;
 700155X                       100.75               0                            ;
 700155Y                       100.75        0.012372 NRW                        ;
 700156X                       100.75               0                            ;
 700156Y                       100.75        0.006466 NRW                        ;
 700157X                    99.944748               0                            ;
 700157Y                    99.944748               0                            ;
 700158Y                    99.944748               0                            ;
 700159X                    99.944748        0.000722 NRW                        ;
 700159Y                    99.944748               0                            ;
 700160X                       100.17        0.002378 Commercial                 ;
 700160Y                       100.17               0                            ;
 700162X                     99.94342        0.004749 NRW                        ;
 700162Y                     99.94342               0                            ;
 700166X                     99.93618         0.00594 NRW                        ;
 700166Y                     99.93618               0                            ;
 700167X                    99.932503               0                            ;
 700167Y                    99.932503        0.005669 NRW                        ;
 700168X                     99.93618        0.007616 NRW                        ;
 700168Y                     99.93618               0                            ;
 700169X                    99.932503        0.012372 NRW                        ;
 700169Y                    99.932503               0                            ;
 700170X                       100.64               0                            ;
 700170Y                       100.64               0                            ;
 700171X                       100.64         0.00802 Commercial                 ;
 700171Y                       100.64               0                            ;
 8055439X                   99.957932        0.004667 NRW                        ;
 8055439Y                   99.957932               0                            ;
 8058387X                   99.940437        0.008527 Commercial                 ;
 8058387Y                   99.940437               0                            ;
 8058389X                      100.17               0                            ;
 8058389Y                      100.17               0                            ;
 8058390X                    99.97139        0.010873 Commercial                 ;
 8058390Y                    99.97139               0                            ;
 8058391X                      100.17               0                            ;
 8058391Y                      100.17        0.017283 NRW                        ;
 8058401X                   99.973831               0                            ;
 8058401Y                   99.973831               0                            ;
 8058405X                      100.17               0                            ;
 8058405Y                      100.17               0                            ;
 8058985X                   99.944748               0                            ;
 8058986X                   99.959183        0.003614 Commercial                 ;
 8058986Y                   99.959183               0                            ;
 8058987X                   99.962303               0                            ;
 8058987Y                   99.962303               0                            ;
 8058988X                   99.962303               0                            ;
 8058988Y                   99.962303               0                            ;
 8058990X                   99.946877               0                            ;
 8058990Y                   99.946877               0                            ;
 8058991X                     99.9431               0                            ;
 8058991Y                     99.9431        0.003867 Commercial                 ;
 8058992X                   99.932388               0                            ;
 8058992Y                   99.932388        0.007616 NRW                        ;
 8058994X                      100.64               0                            ;
 8058994Y                      100.64               0                            ;
 8059000X                    99.89299               0                            ;
 8059000Y                    99.89299               0                            ;
 8059001X                   99.891052        0.020578 NRW                        ;
 8059001Y                   99.891052               0                            ;
 8059020X                      101.36        0.000318 NRW                        ;
 8059020Y                      101.36        0.013023 NRW                        ;
 8059023X                      100.57        0.007209 NRW                        ;
 8059023Y                      100.57               0                            ;
 8059030X                      100.75        0.010848 NRW                        ;
 8059030Y                      100.75               0                            ;
 8059032X                    99.92939        0.001456 NRW                        ;
 8059032Y                    99.92939        0.004125 NRW                        ;
 8059033X                      100.78         0.00425 NRW                        ;
 8059033Y                      100.78               0                            ;
 8059034X                      100.78               0                            ;
 8059034Y                      100.78        0.013404 NRW                        ;
 8059047X                   99.978668               0                            ;
 8059047Y                   99.978668        0.002086 NRW                        ;
 8059048X                   99.978668        0.004625 NRW                        ;
 8059048Y                   99.978668               0                            ;
 8059055X                      100.21               0                            ;
 8059055Y                      100.21         0.00881 NRW                        ;
 8059056X                   99.970497        0.000917 NRW                        ;
 8059056Y                   99.970497               0                            ;
 8059085X                      100.42        0.024268 NRW                        ;
 8059085Y                      100.42               0                            ;
 8059086X                      100.42               0                            ;
 8059086Y                      100.42        0.009906 NRW                        ;
 8059087X                      100.12               0                            ;
 8059087Y                      100.12        0.001367 NRW                        ;
 8059089X                      100.37               0                            ;
 8059089Y                      100.37        0.011102 NRW                        ;
 8059091X                    99.96991               0                            ;
 8059091Y                    99.96991        0.002283 NRW                        ;
 8059774X                   99.968697               0                            ;
 8059774Y                   99.968697               0                            ;
 8059778X                    99.95266        0.007889 NRW                        ;
 8059778Y                    99.95266               0                            ;
 8059780X                    99.95266               0                            ;
 8059780Y                    99.95266               0                            ;
 8059789X                   99.944717               0                            ;
 8059789Y                   99.944717               0                            ;
 8059790X                   99.944717               0                            ;
 8059790Y                   99.944717        0.000438 NRW                        ;
 8082528                        99.96        0.004052 NRW                        ;
 8087725                     99.94371        0.007988 NRW                        ;
 8087726                    99.938957        0.010211 NRW                        ;
 8087727X                   99.938957               0                            ;
 8087727Y                   99.938957               0                            ;
 8087728X                    99.94371               0                            ;
 8087728Y                    99.94371               0                            ;
 8087732                    99.944992        0.007841 NRW                        ;
 8087733                    99.948013        0.009886 NRW                        ;
 8087734                    99.938957        0.006757 NRW                        ;
 8087735                     99.94371        0.005093 NRW                        ;
 8087736                    99.938957               0                            ;
 8087737                    99.938957        0.025712 NRW                        ;
 8093040                     99.94857         4.22225 LU_Nestle                  ;
 8093041                    99.944748               0                            ;
 8093042X                   99.944748               0                            ;
 8093042Y                   99.944748               0                            ;
 8093043X                   99.944748               0                            ;
 8093043Y                   99.944748               0                            ;
 8096701X                   99.909477               0                            ;
 8096701Y                   99.909477        0.011093 NRW                        ;
 8099156                        100.4        0.016389 NRW                        ;
 8101040                    99.941971               0                            ;
 8101041X                   99.941971        0.004099 NRW                        ;
 8101041Y                   99.941971               0                            ;
 8102457                    99.956497        0.013573 NRW                        ;
 8102458X                   99.956497               0                            ;
 8102458Y                   99.956497        0.005649 NRW                        ;
 8105873X                   99.944748               0                            ;
 8105873Y                   99.944748               0                            ;
 GHD_001                        99.94               0                            ;
 GHD_002                        99.94               0                            ;
 GHD_005                        99.94               0                            ;
 P_01                          99.803               0                            ;
 P_02                          100.47               0                            ;
 P_03                           99.96               0                            ;
 P_04                         100.372               0                            ;